* File: HW4_cpy.pex.netlist.pex
* Created: Sun Dec 17 13:11:45 2023
* Program "Calibre xRC"
* Version "v2022.3_33.19"
* Nominal Temperature: 27C
* Circuit Temperature: 27C
* 
.subckt PM_HW4_CPY%VDD 465 471 477 637 638 639 655 656 657 664 665 666 682 683
+ 684 691 692 693 715 719 723 727 731 735 739 743 747 751 755 759 763 767 771
+ 775 779 783 787 791 795 799 803 807 811 815 819 823 827 831 835 839 843 847
+ 851 855 859 863 867 871 875 879 883 887 891 895 899 903
c0 621 0 2.805e-19
c1 619 0 2.805e-19
c2 617 0 2.805e-19
c3 613 0 0.805637f
c4 609 0 0.805637f
c5 605 0 0.805637f
c6 603 0 0.00769223f
c7 602 0 0.00489333f
c8 599 0 0.00769223f
c9 598 0 0.00489333f
c10 595 0 0.00769223f
c11 594 0 0.00489333f
c12 567 0 7.5168e-22
c13 565 0 7.5168e-22
c14 563 0 7.5168e-22
c15 561 0 7.07463e-22
c16 559 0 7.07463e-22
c17 557 0 7.07463e-22
c18 555 0 7.07463e-22
c19 553 0 7.07463e-22
c20 551 0 7.07463e-22
c21 549 0 6.63247e-22
c22 547 0 6.63247e-22
c23 545 0 6.63247e-22
c24 525 0 0.00817244f
c25 523 0 0.00817244f
c26 521 0 0.00817244f
c27 519 0 0.00769171f
c28 517 0 0.00769171f
c29 515 0 0.00769171f
c30 513 0 0.00769171f
c31 511 0 0.00769171f
c32 509 0 0.00769171f
c33 507 0 0.00721098f
c34 505 0 0.00721098f
c35 503 0 0.00721098f
c36 500 0 0.0124903f
c37 496 0 0.0124903f
c38 492 0 0.0124903f
c39 488 0 0.152511f
c40 484 0 0.152511f
c41 480 0 0.152511f
c42 473 0 4.24757e-19
c43 472 0 0.0141525f
c44 467 0 4.24757e-19
c45 466 0 0.0141525f
c46 461 0 4.24757e-19
c47 460 0 0.0141525f
c48 458 0 0.100976f
c49 454 0 0.100976f
c50 450 0 0.100976f
c51 434 0 0.118317f
c52 430 0 0.118317f
c53 426 0 0.118317f
c54 410 0 0.115472f
c55 406 0 0.115472f
c56 402 0 0.115472f
c57 397 0 0.0550743f
c58 396 0 0.0160007f
c59 393 0 0.0550743f
c60 392 0 0.0160007f
c61 389 0 0.0550743f
c62 388 0 0.0160007f
c63 386 0 0.124244f
c64 382 0 0.124244f
c65 378 0 0.124244f
c66 375 0 0.0895505f
c67 373 0 0.0895505f
c68 371 0 0.0895505f
c69 366 0 0.780902f
c70 362 0 0.840328f
c71 358 0 0.841316f
c72 356 0 0.223755f
c73 352 0 0.223755f
c74 348 0 0.223755f
c75 342 0 0.00220607f
c76 338 0 0.00220607f
c77 334 0 0.00220607f
c78 332 0 0.198686f
c79 328 0 0.198686f
c80 324 0 0.198686f
c81 316 0 0.0177422f
c82 310 0 0.0177422f
c83 304 0 0.0177422f
c84 302 0 0.227899f
c85 298 0 0.227899f
c86 294 0 0.227899f
c87 288 0 0.00392194f
c88 284 0 0.00392194f
c89 280 0 0.00392194f
c90 278 0 0.235566f
c91 274 0 0.235566f
c92 270 0 0.235566f
c93 267 0 0.0458655f
c94 266 0 0.31748f
c95 265 0 0.0458655f
c96 264 0 0.31748f
c97 263 0 0.0458655f
c98 262 0 0.31748f
c99 261 0 0.0892894f
c100 259 0 0.0892894f
c101 257 0 0.0892894f
c102 252 0 0.270508f
c103 248 0 0.270508f
c104 244 0 0.270508f
c105 242 0 0.120923f
c106 238 0 0.120923f
c107 234 0 0.120923f
c108 218 0 0.117884f
c109 214 0 0.117884f
c110 210 0 0.117884f
c111 204 0 0.0148062f
c112 200 0 0.0148062f
c113 196 0 0.0148062f
c114 194 0 0.148619f
c115 190 0 0.148619f
c116 186 0 0.148619f
c117 180 0 0.0613352f
c118 176 0 0.0613352f
c119 172 0 0.0613352f
c120 170 0 0.460666f
c121 164 0 0.460666f
c122 158 0 0.460666f
c123 152 0 0.223755f
c124 148 0 0.223755f
c125 144 0 0.223755f
c126 138 0 0.0325363f
c127 134 0 0.0325363f
c128 130 0 0.0325363f
c129 128 0 0.198686f
c130 124 0 0.198686f
c131 120 0 0.198686f
c132 112 0 0.138792f
c133 106 0 0.138792f
c134 100 0 0.138792f
c135 98 0 0.227899f
c136 94 0 0.227899f
c137 90 0 0.227899f
c138 84 0 0.0524349f
c139 80 0 0.0524349f
c140 76 0 0.0524349f
c141 74 0 0.271115f
c142 70 0 0.271028f
c143 66 0 0.271115f
c144 60 0 0.0702317f
c145 56 0 0.09491f
c146 52 0 0.110482f
c147 45 0 0.0308283f
c148 43 0 0.0887779f
c149 39 0 0.0887779f
c150 35 0 0.0887779f
c151 29 0 0.355252f
c152 25 0 0.355252f
c153 21 0 0.355252f
c154 19 0 0.106748f
c155 17 0 0.0486308f
c156 15 0 0.0782496f
c157 11 0 0.0990702f
c158 9 0 0.0534817f
c159 8 0 1.23266f
c160 6 0 1.24287f
r161 1167 1169 14.5862
r162 1160 1163 28.0862
r163 1155 1157 14.5862
r164 1148 1151 28.0862
r165 1143 1145 14.5862
r166 1136 1139 28.0862
r167 1131 1133 13.6452
r168 1129 1131 13.5
r169 1123 1125 13.2097
r170 1120 1123 13.0645
r171 1115 1117 13.6452
r172 1113 1115 13.5
r173 1107 1109 13.2097
r174 1104 1107 13.0645
r175 1099 1101 13.6452
r176 1097 1099 13.5
r177 1091 1093 13.2097
r178 1088 1091 13.0645
r179 1083 1085 15.2069
r180 1081 1083 13.8103
r181 1079 1081 15.5172
r182 1077 1079 28.7069
r183 1071 1073 29.0172
r184 1069 1071 29.6379
r185 1066 1069 13.9655
r186 1061 1063 15.2069
r187 1059 1061 13.8103
r188 1057 1059 15.5172
r189 1055 1057 28.7069
r190 1049 1051 29.0172
r191 1047 1049 29.6379
r192 1044 1047 13.9655
r193 1039 1041 15.2069
r194 1037 1039 13.8103
r195 1035 1037 15.5172
r196 1033 1035 28.7069
r197 1027 1029 29.0172
r198 1025 1027 29.6379
r199 1022 1025 13.9655
r200 1017 1019 14.5862
r201 1015 1017 14.431
r202 1009 1011 14.1207
r203 1006 1009 13.9655
r204 1001 1003 14.5862
r205 999 1001 14.431
r206 993 995 14.1207
r207 990 993 13.9655
r208 985 987 14.5862
r209 983 985 14.431
r210 977 979 14.1207
r211 974 977 13.9655
r212 969 971 15.2069
r213 967 969 13.8103
r214 965 967 15.5172
r215 963 965 28.7069
r216 957 959 29.0172
r217 955 957 29.6379
r218 952 955 13.9655
r219 947 949 15.2069
r220 945 947 13.8103
r221 943 945 15.5172
r222 941 943 28.7069
r223 935 937 29.0172
r224 933 935 29.6379
r225 930 933 13.9655
r226 925 927 15.2069
r227 923 925 13.8103
r228 921 923 15.5172
r229 919 921 28.7069
r230 913 915 29.0172
r231 911 913 29.6379
r232 908 911 13.9655
r233 903 905 2.66018
r234 899 901 2.66018
r235 895 897 2.66018
r236 891 893 2.1823
r237 887 889 2.1823
r238 883 885 2.1823
r239 879 881 2.66018
r240 875 877 2.66018
r241 871 873 2.66018
r242 867 869 2.11858
r243 863 865 2.11858
r244 859 861 2.11858
r245 855 857 2.1823
r246 851 853 2.1823
r247 847 849 2.1823
r248 843 845 2.97876
r249 839 841 2.97876
r250 835 837 2.97876
r251 831 833 3.07434
r252 827 829 3.07434
r253 823 825 3.07434
r254 819 821 3.37699
r255 815 817 3.37699
r256 811 813 3.37699
r257 807 809 2.50089
r258 803 805 2.50089
r259 799 801 2.50089
r260 795 797 2.66018
r261 791 793 2.66018
r262 787 789 2.66018
r263 783 785 2.11858
r264 779 781 2.11858
r265 775 777 2.11858
r266 771 773 2.1823
r267 767 769 2.1823
r268 763 765 2.1823
r269 759 761 2.97876
r270 755 757 2.97876
r271 751 753 2.97876
r272 747 749 3.07434
r273 743 745 3.07434
r274 739 741 3.07434
r275 735 737 3.37699
r276 731 733 3.37699
r277 727 729 3.37699
r278 723 725 2.50089
r279 719 721 2.50089
r280 715 717 2.50089
r281 693 1167 21.8017
r282 693 1163 8.14655
r283 692 1155 21.8017
r284 692 1151 8.14655
r285 691 1143 21.8017
r286 691 1139 8.14655
r287 684 1129 6.89516
r288 684 1125 7.62097
r289 683 1113 6.89516
r290 683 1109 7.62097
r291 682 1097 6.89516
r292 682 1093 7.62097
r293 666 1077 22.0345
r294 666 1073 22.3448
r295 665 1055 22.0345
r296 665 1051 22.3448
r297 664 1033 22.0345
r298 664 1029 22.3448
r299 657 1015 7.37069
r300 657 1011 8.14655
r301 656 999 7.37069
r302 656 995 8.14655
r303 655 983 7.37069
r304 655 979 8.14655
r305 639 919 22.7328
r306 639 915 21.6466
r307 638 963 22.0345
r308 638 959 22.3448
r309 637 941 22.0345
r310 637 937 22.3448
r311 621 1167 16.3327
r312 619 1155 16.3327
r313 617 1143 16.3327
r314 615 1160 16.3327
r315 612 615 0.0016383
r316 612 613 0.0558511
r317 611 1148 16.3327
r318 608 611 0.0016383
r319 608 609 0.0558511
r320 607 1136 16.3327
r321 604 607 0.0016383
r322 604 605 0.0558511
r323 603 613 1.428
r324 601 1133 16.3327
r325 601 603 0.0428545
r326 601 602 0.00236935
r327 599 609 1.428
r328 597 1117 16.3327
r329 597 599 0.0428545
r330 597 598 0.00236935
r331 595 605 1.428
r332 593 1101 16.3327
r333 593 595 0.0428545
r334 593 594 0.00236935
r335 591 1131 16.3327
r336 589 1115 16.3327
r337 587 1099 16.3327
r338 585 1125 16.3327
r339 583 1109 16.3327
r340 581 1093 16.3327
r341 579 1120 16.3327
r342 575 1104 16.3327
r343 571 1088 16.3327
r344 567 1083 16.3327
r345 565 1061 16.3327
r346 563 1039 16.3327
r347 561 1079 16.3327
r348 559 1057 16.3327
r349 557 1035 16.3327
r350 555 1071 16.3327
r351 553 1049 16.3327
r352 551 1027 16.3327
r353 549 1066 16.3327
r354 547 1044 16.3327
r355 545 1022 16.3327
r356 543 1017 16.3327
r357 541 1001 16.3327
r358 539 985 16.3327
r359 537 1011 16.3327
r360 535 995 16.3327
r361 533 979 16.3327
r362 531 1006 16.3327
r363 529 990 16.3327
r364 527 974 16.3327
r365 525 925 16.3327
r366 523 969 16.3327
r367 521 947 16.3327
r368 519 921 16.3327
r369 517 965 16.3327
r370 515 943 16.3327
r371 513 913 16.3327
r372 511 957 16.3327
r373 509 935 16.3327
r374 507 908 16.3327
r375 505 952 16.3327
r376 503 930 16.3327
r377 500 1169 16.3327
r378 498 621 0.0230424
r379 498 500 0.115574
r380 496 1157 16.3327
r381 494 619 0.0230424
r382 494 496 0.115574
r383 492 1145 16.3327
r384 490 617 0.0230424
r385 490 492 0.115574
r386 488 905 8.16635
r387 486 621 0.0139006
r388 486 488 0.3488
r389 484 901 8.16635
r390 482 619 0.0139006
r391 482 484 0.3488
r392 480 897 8.16635
r393 478 617 0.0139006
r394 478 480 0.3488
r395 475 1163 5.44423
r396 475 477 0.0393192
r397 473 615 0.0214468
r398 473 475 0.248128
r399 472 621 0.0230424
r400 472 477 0.220426
r401 469 1151 5.44423
r402 469 471 0.0393192
r403 467 611 0.0214468
r404 467 469 0.248128
r405 466 619 0.0230424
r406 466 471 0.220426
r407 463 1139 5.44423
r408 463 465 0.0393192
r409 461 607 0.0214468
r410 461 463 0.248128
r411 460 617 0.0230424
r412 460 465 0.220426
r413 458 893 8.16635
r414 456 612 0.0182052
r415 456 458 0.393806
r416 454 889 8.16635
r417 452 608 0.0182052
r418 452 454 0.393806
r419 450 885 8.16635
r420 448 604 0.0182052
r421 448 450 0.393806
r422 441 591 0.0214453
r423 441 602 0.104314
r424 439 589 0.0214453
r425 439 598 0.104314
r426 437 587 0.0214453
r427 437 594 0.104314
r428 434 881 8.16635
r429 432 591 0.0156484
r430 432 434 0.3368
r431 430 877 8.16635
r432 428 589 0.0156484
r433 428 430 0.3368
r434 426 873 8.16635
r435 424 587 0.0156484
r436 424 426 0.3368
r437 423 1129 16.3327
r438 421 585 0.0186876
r439 421 423 0.116118
r440 420 591 0.0214453
r441 420 423 0.102118
r442 419 1113 16.3327
r443 417 583 0.0186876
r444 417 419 0.116118
r445 416 589 0.0214453
r446 416 419 0.102118
r447 415 1097 16.3327
r448 413 581 0.0186876
r449 413 415 0.116118
r450 412 587 0.0214453
r451 412 415 0.102118
r452 410 869 8.16635
r453 408 585 0.0189737
r454 408 410 0.388267
r455 406 865 8.16635
r456 404 583 0.0189737
r457 404 406 0.388267
r458 402 861 8.16635
r459 400 581 0.0189737
r460 400 402 0.388267
r461 399 1123 16.3327
r462 397 579 0.0190189
r463 397 399 0.103765
r464 396 585 0.0186876
r465 396 399 0.104863
r466 395 1107 16.3327
r467 393 575 0.0190189
r468 393 395 0.103765
r469 392 583 0.0186876
r470 392 395 0.104863
r471 391 1091 16.3327
r472 389 571 0.0190189
r473 389 391 0.103765
r474 388 581 0.0186876
r475 388 391 0.104863
r476 386 857 8.16635
r477 384 579 0.00145283
r478 384 576 0.102358
r479 384 386 0.380258
r480 382 853 8.16635
r481 380 575 0.00145283
r482 380 572 0.102358
r483 380 382 0.380258
r484 378 849 8.16635
r485 376 571 0.00145283
r486 376 568 0.102358
r487 376 378 0.380258
r488 374 576 0.00477601
r489 374 375 0.145385
r490 372 572 0.00477601
r491 372 373 0.145385
r492 370 568 0.00477601
r493 370 371 0.145385
r494 369 1085 16.3327
r495 367 567 0.0224645
r496 367 369 0.117064
r497 366 375 0.0392409
r498 366 369 1.2874
r499 365 1063 16.3327
r500 363 565 0.0224645
r501 363 365 0.117064
r502 362 373 0.0392409
r503 362 365 1.2874
r504 361 1041 16.3327
r505 359 563 0.0224645
r506 359 361 0.117064
r507 358 371 0.0392409
r508 358 361 1.2874
r509 356 845 8.16635
r510 354 567 0.0145196
r511 354 356 0.655529
r512 352 841 8.16635
r513 350 565 0.0145196
r514 350 352 0.655529
r515 348 837 8.16635
r516 346 563 0.0145196
r517 346 348 0.655529
r518 345 1081 16.3327
r519 343 561 0.0212953
r520 343 345 0.123021
r521 342 567 0.0224645
r522 342 345 0.110809
r523 341 1059 16.3327
r524 339 559 0.0212953
r525 339 341 0.123021
r526 338 565 0.0224645
r527 338 341 0.110809
r528 337 1037 16.3327
r529 335 557 0.0212953
r530 335 337 0.123021
r531 334 563 0.0224645
r532 334 337 0.110809
r533 332 833 8.16635
r534 330 561 0.0158187
r535 330 332 0.692125
r536 328 829 8.16635
r537 326 559 0.0158187
r538 326 328 0.692125
r539 324 825 8.16635
r540 322 557 0.0158187
r541 322 324 0.692125
r542 321 1077 5.44423
r543 319 1073 5.44423
r544 319 321 0.425957
r545 317 555 0.0212953
r546 317 319 0.252596
r547 316 561 0.0212953
r548 316 321 0.253787
r549 315 1055 5.44423
r550 313 1051 5.44423
r551 313 315 0.425957
r552 311 553 0.0212953
r553 311 313 0.252596
r554 310 559 0.0212953
r555 310 315 0.253787
r556 309 1033 5.44423
r557 307 1029 5.44423
r558 307 309 0.425957
r559 305 551 0.0212953
r560 305 307 0.252596
r561 304 557 0.0212953
r562 304 309 0.253787
r563 302 821 8.16635
r564 300 555 0.0158187
r565 300 302 0.6965
r566 298 817 8.16635
r567 296 553 0.0158187
r568 296 298 0.6965
r569 294 813 8.16635
r570 292 551 0.0158187
r571 292 294 0.6965
r572 291 1069 8.16635
r573 289 549 0.0201079
r574 289 291 0.111106
r575 288 555 0.0212953
r576 288 291 0.262723
r577 287 1047 8.16635
r578 285 547 0.0201079
r579 285 287 0.111106
r580 284 553 0.0212953
r581 284 287 0.262723
r582 283 1025 8.16635
r583 281 545 0.0201079
r584 281 283 0.111106
r585 280 551 0.0212953
r586 280 283 0.262723
r587 278 809 8.16635
r588 276 549 0.0172078
r589 276 278 0.742933
r590 274 805 8.16635
r591 272 547 0.0172078
r592 272 274 0.742933
r593 270 801 8.16635
r594 268 545 0.0172078
r595 268 270 0.742933
r596 266 549 0.0201079
r597 266 267 0.518298
r598 264 547 0.0201079
r599 264 265 0.518298
r600 262 545 0.0201079
r601 262 263 0.518298
r602 261 267 0.0478013
r603 260 261 0.127931
r604 259 265 0.0478013
r605 258 259 0.127931
r606 257 263 0.0478013
r607 256 257 0.127931
r608 255 1019 16.3327
r609 253 543 0.0230424
r610 253 255 0.115574
r611 252 260 0.0396719
r612 252 255 0.448894
r613 251 1003 16.3327
r614 249 541 0.0230424
r615 249 251 0.115574
r616 248 258 0.0396719
r617 248 251 0.448894
r618 247 987 16.3327
r619 245 539 0.0230424
r620 245 247 0.115574
r621 244 256 0.0396719
r622 244 247 0.448894
r623 242 797 8.16635
r624 240 543 0.0139006
r625 240 242 0.3488
r626 238 793 8.16635
r627 236 541 0.0139006
r628 236 238 0.3488
r629 234 789 8.16635
r630 232 539 0.0139006
r631 232 234 0.3488
r632 231 1015 16.3327
r633 229 537 0.0201079
r634 229 231 0.126
r635 228 543 0.0230424
r636 228 231 0.110809
r637 227 999 16.3327
r638 225 535 0.0201079
r639 225 227 0.126
r640 224 541 0.0230424
r641 224 227 0.110809
r642 223 983 16.3327
r643 221 533 0.0201079
r644 221 223 0.126
r645 220 539 0.0230424
r646 220 223 0.110809
r647 218 785 8.16635
r648 216 537 0.0172078
r649 216 218 0.402267
r650 214 781 8.16635
r651 212 535 0.0172078
r652 212 214 0.402267
r653 210 777 8.16635
r654 208 533 0.0172078
r655 208 210 0.402267
r656 207 1009 16.3327
r657 205 531 0.0207039
r658 205 207 0.112596
r659 204 537 0.0201079
r660 204 207 0.113787
r661 203 993 16.3327
r662 201 529 0.0207039
r663 201 203 0.112596
r664 200 535 0.0201079
r665 200 203 0.113787
r666 199 977 16.3327
r667 197 527 0.0207039
r668 197 199 0.112596
r669 196 533 0.0201079
r670 196 199 0.113787
r671 194 773 8.16635
r672 192 531 0.0165013
r673 192 194 0.393806
r674 190 769 8.16635
r675 188 529 0.0165013
r676 188 190 0.393806
r677 186 765 8.16635
r678 184 527 0.0165013
r679 184 186 0.393806
r680 180 531 0.0207039
r681 180 182 0.0720851
r682 176 529 0.0207039
r683 176 178 0.0720851
r684 172 527 0.0207039
r685 172 174 0.0720851
r686 168 927 16.3327
r687 168 170 0.658298
r688 166 525 0.0224645
r689 166 168 0.117064
r690 162 971 16.3327
r691 162 164 0.658298
r692 160 523 0.0224645
r693 160 162 0.117064
r694 156 949 16.3327
r695 156 158 0.658298
r696 154 521 0.0224645
r697 154 156 0.117064
r698 152 761 8.16635
r699 150 525 0.0145196
r700 150 152 0.655529
r701 148 757 8.16635
r702 146 523 0.0145196
r703 146 148 0.655529
r704 144 753 8.16635
r705 142 521 0.0145196
r706 142 144 0.655529
r707 141 923 16.3327
r708 139 519 0.0212953
r709 139 141 0.123021
r710 138 525 0.0224645
r711 138 141 0.110809
r712 137 967 16.3327
r713 135 517 0.0212953
r714 135 137 0.123021
r715 134 523 0.0224645
r716 134 137 0.110809
r717 133 945 16.3327
r718 131 515 0.0212953
r719 131 133 0.123021
r720 130 521 0.0224645
r721 130 133 0.110809
r722 128 749 8.16635
r723 126 519 0.0158187
r724 126 128 0.692125
r725 124 745 8.16635
r726 122 517 0.0158187
r727 122 124 0.692125
r728 120 741 8.16635
r729 118 515 0.0158187
r730 118 120 0.692125
r731 117 919 5.44423
r732 115 915 5.44423
r733 115 117 0.425957
r734 113 513 0.0212953
r735 113 115 0.252596
r736 112 519 0.0212953
r737 112 117 0.253787
r738 111 963 5.44423
r739 109 959 5.44423
r740 109 111 0.425957
r741 107 511 0.0212953
r742 107 109 0.252596
r743 106 517 0.0212953
r744 106 111 0.253787
r745 105 941 5.44423
r746 103 937 5.44423
r747 103 105 0.425957
r748 101 509 0.0212953
r749 101 103 0.252596
r750 100 515 0.0212953
r751 100 105 0.253787
r752 98 737 8.16635
r753 96 513 0.0158187
r754 96 98 0.6965
r755 94 733 8.16635
r756 92 511 0.0158187
r757 92 94 0.6965
r758 90 729 8.16635
r759 88 509 0.0158187
r760 88 90 0.6965
r761 87 911 8.16635
r762 85 507 0.0201079
r763 85 87 0.111106
r764 84 513 0.0212953
r765 84 87 0.262723
r766 83 955 8.16635
r767 81 505 0.0201079
r768 81 83 0.111106
r769 80 511 0.0212953
r770 80 83 0.262723
r771 79 933 8.16635
r772 77 503 0.0201079
r773 77 79 0.111106
r774 76 509 0.0212953
r775 76 79 0.262723
r776 74 725 8.16635
r777 72 507 0.0172078
r778 72 74 0.742933
r779 70 721 8.16635
r780 68 505 0.0172078
r781 68 70 0.742933
r782 66 717 8.16635
r783 64 503 0.0172078
r784 64 66 0.742933
r785 60 507 0.0201079
r786 60 62 0.103362
r787 56 503 0.0201079
r788 56 58 0.118255
r789 52 505 0.0201079
r790 52 54 0.122723
r791 43 182 8
r792 41 43 0.154556
r793 39 178 8
r794 37 39 0.154556
r795 35 174 8
r796 33 35 0.154556
r797 31 170 8
r798 29 41 0.0411364
r799 29 31 0.423042
r800 27 164 8
r801 25 37 0.0411364
r802 25 27 0.423042
r803 23 158 8
r804 21 33 0.0411364
r805 21 23 0.423042
r806 19 62 8
r807 17 19 0.157896
r808 15 54 8
r809 13 45 0.0118184
r810 13 15 0.140292
r811 11 58 8
r812 9 11 0.144354
r813 8 17 0.0468233
r814 7 45 0.0224489
r815 7 8 1.86262
r816 6 45 0.0224489
r817 5 9 0.0369933
r818 5 6 1.87967
.ends

.subckt PM_HW4_CPY%X2 12 45 49 53 59 67 71
c0 79 0 0.0382078f
c1 75 0 0.10961f
c2 73 0 0.0350296f
c3 71 0 0.312339f
c4 67 0 0.525975f
c5 61 0 0.183899f
c6 59 0 0.623f
c7 55 0 0.464717f
c8 53 0 0.246211f
c9 49 0 0.366277f
c10 45 0 0.444342f
c11 39 0 0.124119f
c12 36 0 0.0262834f
c13 34 0 0.194001f
c14 32 0 0.075382f
c15 31 0 0.726626f
c16 28 0 0.160376f
c17 22 0 0.187725f
c18 20 0 0.0503351f
c19 19 0 0.0827402f
c20 18 0 1.97039f
c21 16 0 0.0963236f
c22 15 0 0.712508f
c23 10 0 0.247869f
c24 6 0 0.245664f
r25 75 77 2.39464
r26 75 76 7.9952
r27 69 79 7.67908
r28 69 71 105.395
r29 65 79 7.67908
r30 65 67 195.158
r31 61 79 1.27263
r32 61 63 18.0735
r33 57 59 195.868
r34 56 77 5.28925
r35 55 57 5.02856
r36 55 56 178.105
r37 53 76 58.7368
r38 47 73 7.67908
r39 47 49 108.711
r40 43 73 7.67908
r41 43 45 144.474
r42 39 73 1.27263
r43 39 41 11.6449
r44 38 41 13.2552
r45 34 63 13.2552
r46 32 34 0.193714
r47 30 32 0.040233
r48 30 31 0.768939
r49 28 75 13.2552
r50 25 28 0.174255
r51 20 38 0.019071
r52 20 22 0.183186
r53 18 31 0.0393231
r54 18 19 2.38241
r55 17 36 0.0287544
r56 16 38 0.0200747
r57 16 17 0.14375
r58 15 19 0.0391759
r59 14 36 0.00845648
r60 14 15 0.935926
r61 10 36 0.0287544
r62 10 12 0.2925
r63 6 25 8
r64 3 22 8
r65 3 6 0.423191
.ends

.subckt PM_HW4_CPY%X1 12 45 49 53 59 67 71
c0 79 0 0.0382078f
c1 75 0 0.10961f
c2 73 0 0.0350296f
c3 71 0 0.312339f
c4 67 0 0.525975f
c5 61 0 0.183899f
c6 59 0 0.623f
c7 55 0 0.464717f
c8 53 0 0.246211f
c9 49 0 0.366277f
c10 45 0 0.444805f
c11 39 0 0.124406f
c12 36 0 0.0496133f
c13 34 0 0.194001f
c14 32 0 0.075382f
c15 31 0 0.726626f
c16 28 0 0.160376f
c17 22 0 0.191798f
c18 20 0 0.0459336f
c19 19 0 0.0827402f
c20 18 0 1.97084f
c21 16 0 0.0952214f
c22 15 0 0.757462f
c23 10 0 0.261194f
c24 6 0 0.250222f
r25 75 77 2.39464
r26 75 76 7.9952
r27 69 79 7.67908
r28 69 71 105.395
r29 65 79 7.67908
r30 65 67 195.158
r31 61 79 1.27263
r32 61 63 18.0735
r33 57 59 195.868
r34 56 77 5.28925
r35 55 57 5.02856
r36 55 56 178.105
r37 53 76 58.7368
r38 47 73 7.67908
r39 47 49 108.711
r40 43 73 7.67908
r41 43 45 144.474
r42 39 73 1.27263
r43 39 41 11.6449
r44 38 41 13.2552
r45 34 63 13.2552
r46 32 34 0.193714
r47 30 32 0.040233
r48 30 31 0.768939
r49 28 75 13.2552
r50 25 28 0.174255
r51 20 38 0.0184172
r52 20 22 0.187932
r53 18 31 0.0393231
r54 18 19 2.38241
r55 17 36 0.0305834
r56 16 38 0.0208965
r57 16 17 0.154808
r58 15 19 0.0391759
r59 14 36 0.0069255
r60 14 15 0.935926
r61 10 36 0.0305834
r62 10 12 0.282692
r63 6 25 8
r64 3 22 8
r65 3 6 0.423191
.ends

.subckt PM_HW4_CPY%X0 12 45 49 53 59 67 71
c0 79 0 0.0382078f
c1 75 0 0.10961f
c2 73 0 0.0350296f
c3 71 0 0.312339f
c4 67 0 0.525975f
c5 61 0 0.183899f
c6 59 0 0.623f
c7 55 0 0.464717f
c8 53 0 0.246211f
c9 49 0 0.366277f
c10 45 0 0.444805f
c11 39 0 0.124119f
c12 36 0 0.0501397f
c13 34 0 0.194001f
c14 32 0 0.075382f
c15 31 0 0.726626f
c16 28 0 0.160376f
c17 22 0 0.187879f
c18 20 0 0.0503351f
c19 19 0 0.0478118f
c20 18 0 1.96898f
c21 16 0 0.0963236f
c22 15 0 0.742049f
c23 10 0 0.270307f
c24 6 0 0.250222f
r25 75 77 2.39464
r26 75 76 7.9952
r27 69 79 7.67908
r28 69 71 105.395
r29 65 79 7.67908
r30 65 67 195.158
r31 61 79 1.27263
r32 61 63 18.0735
r33 57 59 195.868
r34 56 77 5.28925
r35 55 57 5.02856
r36 55 56 178.105
r37 53 76 58.7368
r38 47 73 7.67908
r39 47 49 108.711
r40 43 73 7.67908
r41 43 45 144.474
r42 39 73 1.27263
r43 39 41 11.6449
r44 38 41 13.2552
r45 34 63 13.2552
r46 32 34 0.193714
r47 30 32 0.040233
r48 30 31 0.768939
r49 28 75 13.2552
r50 25 28 0.174255
r51 20 38 0.019071
r52 20 22 0.183186
r53 18 31 0.0393231
r54 18 19 2.38241
r55 17 36 0.0287544
r56 16 38 0.0200747
r57 16 17 0.14375
r58 15 19 0.0391759
r59 14 36 0.00845648
r60 14 15 0.935926
r61 10 36 0.0287544
r62 10 12 0.2625
r63 6 25 8
r64 3 22 8
r65 3 6 0.423191
.ends

.subckt PM_HW4_CPY%S2 6 30 34 38 42
c0 29 0 0.0225867f
c1 27 0 0.0294814f
c2 25 0 0.168018f
c3 21 0 0.288697f
c4 17 0 0.192257f
c5 15 0 0.147421f
c6 11 0 0.263215f
c7 6 0 0.651964f
r8 42 44 7.04483
r9 38 40 7.85172
r10 34 36 3.85487
r11 30 32 3.47257
r12 25 36 8.16635
r13 23 29 0.027481
r14 23 25 0.287966
r15 21 44 16.3327
r16 19 29 0.027481
r17 19 21 0.39031
r18 18 27 0.00344845
r19 17 29 0.00957691
r20 17 18 0.305094
r21 15 32 8.16635
r22 13 27 0.0462034
r23 13 15 0.5544
r24 11 40 16.3327
r25 9 27 0.0462034
r26 9 11 0.749933
r27 3 29 8
r28 3 6 0.951407
.ends

.subckt PM_HW4_CPY%S1 6 30 34 38 42
c0 29 0 0.0225867f
c1 27 0 0.0294814f
c2 25 0 0.168018f
c3 21 0 0.288697f
c4 17 0 0.192257f
c5 15 0 0.147421f
c6 11 0 0.263215f
c7 6 0 0.651964f
r8 42 44 7.04483
r9 38 40 7.85172
r10 34 36 3.85487
r11 30 32 3.47257
r12 25 36 8.16635
r13 23 29 0.027481
r14 23 25 0.287966
r15 21 44 16.3327
r16 19 29 0.027481
r17 19 21 0.39031
r18 18 27 0.00344845
r19 17 29 0.00957691
r20 17 18 0.305094
r21 15 32 8.16635
r22 13 27 0.0462034
r23 13 15 0.5544
r24 11 40 16.3327
r25 9 27 0.0462034
r26 9 11 0.749933
r27 3 29 8
r28 3 6 0.951407
.ends

.subckt PM_HW4_CPY%S0 6 30 34 38 42
c0 29 0 0.0225867f
c1 27 0 0.0294814f
c2 25 0 0.168018f
c3 21 0 0.288697f
c4 17 0 0.192257f
c5 15 0 0.147421f
c6 11 0 0.263215f
c7 6 0 0.641432f
r8 42 44 7.04483
r9 38 40 7.85172
r10 34 36 3.85487
r11 30 32 3.47257
r12 25 36 8.16635
r13 23 29 0.027481
r14 23 25 0.287966
r15 21 44 16.3327
r16 19 29 0.027481
r17 19 21 0.39031
r18 18 27 0.00344845
r19 17 29 0.00957691
r20 17 18 0.305094
r21 15 32 8.16635
r22 13 27 0.0462034
r23 13 15 0.5544
r24 11 40 16.3327
r25 9 27 0.0462034
r26 9 11 0.749933
r27 3 29 8
r28 3 6 0.951407
.ends

.subckt PM_HW4_CPY%8 41 45 51 58 63 68 79 83
c0 86 0 0.0340271f
c1 85 0 0.0328986f
c2 83 0 0.456449f
c3 79 0 0.380663f
c4 73 0 0.0936694f
c5 71 0 0.703468f
c6 68 0 0.528852f
c7 63 0 0.347664f
c8 60 0 0.0209648f
c9 59 0 0.869046f
c10 58 0 0.514985f
c11 54 0 0.0304314f
c12 53 0 0.107537f
c13 51 0 0.424177f
c14 40 0 0.0395435f
c15 39 0 0.0535112f
c16 38 0 0.057951f
c17 33 0 0.786318f
c18 30 0 0.432979f
c19 28 0 0.250732f
c20 24 0 0.348609f
c21 21 0 0.0644016f
c22 20 0 2.50254f
c23 18 0 0.567813f
c24 14 0 0.303555f
c25 11 0 0.0408467f
c26 3 0 0.80378f
r27 81 86 7.67908
r28 81 83 158.447
r29 77 86 7.67908
r30 77 79 138.789
r31 73 86 1.27263
r32 73 75 5.4
r33 69 85 1.35285
r34 69 71 76.6941
r35 66 68 92.1316
r36 65 85 7.87506
r37 65 68 153.711
r38 61 85 7.87506
r39 61 63 99.4737
r40 59 66 5.02856
r41 59 60 351.947
r42 56 60 5.02856
r43 56 58 92.1316
r44 55 58 147.553
r45 53 55 5.02856
r46 53 54 34.5789
r47 49 54 5.02856
r48 49 51 120.789
r49 45 47 7.23103
r50 41 43 3.47257
r51 37 39 0.0400789
r52 37 38 0.039243
r53 35 71 13.2552
r54 32 33 0.584659
r55 31 40 0.00785026
r56 30 33 0.0465602
r57 30 31 0.301467
r58 28 43 8.16635
r59 26 40 0.0550192
r60 26 28 0.478545
r61 24 47 16.3327
r62 22 40 0.0550192
r63 22 24 0.717818
r64 20 32 0.0548669
r65 20 21 2.86785
r66 18 75 13.2552
r67 18 39 0.718
r68 12 21 0.0391227
r69 12 14 0.236537
r70 11 35 0.0465072
r71 11 38 0.101429
r72 6 14 8
r73 3 37 8
r74 3 6 0.774179
.ends

.subckt PM_HW4_CPY%9 43 47 53 60 65 70 81 85
c0 88 0 0.0340271f
c1 87 0 0.0328986f
c2 85 0 0.456449f
c3 81 0 0.380663f
c4 75 0 0.0936694f
c5 73 0 0.703468f
c6 70 0 0.528852f
c7 65 0 0.347664f
c8 62 0 0.0209648f
c9 61 0 0.869046f
c10 60 0 0.514985f
c11 56 0 0.0304314f
c12 55 0 0.107537f
c13 53 0 0.424177f
c14 42 0 0.0395435f
c15 41 0 0.0528988f
c16 40 0 0.0580833f
c17 37 0 0.0402123f
c18 33 0 0.755824f
c19 30 0 0.431406f
c20 28 0 0.250732f
c21 24 0 0.348775f
c22 21 0 0.0633285f
c23 20 0 2.52068f
c24 18 0 0.567813f
c25 14 0 0.304312f
c26 3 0 0.805798f
r27 83 88 7.67908
r28 83 85 158.447
r29 79 88 7.67908
r30 79 81 138.789
r31 75 88 1.27263
r32 75 77 5.4
r33 71 87 1.35285
r34 71 73 76.6941
r35 68 70 92.1316
r36 67 87 7.87506
r37 67 70 153.711
r38 63 87 7.87506
r39 63 65 99.4737
r40 61 68 5.02856
r41 61 62 351.947
r42 58 62 5.02856
r43 58 60 92.1316
r44 57 60 147.553
r45 55 57 5.02856
r46 55 56 34.5789
r47 51 56 5.02856
r48 51 53 120.789
r49 47 49 7.23103
r50 43 45 3.47257
r51 39 41 0.0400789
r52 39 40 0.039243
r53 37 40 0.101429
r54 35 73 13.2552
r55 35 37 0.0463475
r56 32 33 0.569545
r57 31 42 0.00785026
r58 30 33 0.0394355
r59 30 31 0.301467
r60 28 45 8.16635
r61 26 42 0.0550192
r62 26 28 0.478545
r63 24 49 16.3327
r64 22 42 0.0550192
r65 22 24 0.717818
r66 20 32 0.0402716
r67 20 21 2.86785
r68 18 77 13.2552
r69 18 41 0.718
r70 12 21 0.0391227
r71 12 14 0.239672
r72 6 14 8
r73 3 39 8
r74 3 6 0.774179
.ends

.subckt PM_HW4_CPY%10 71 75 79 83 93 97 101 107 115 119
c0 127 0 0.0382078f
c1 123 0 0.10961f
c2 121 0 0.0350296f
c3 119 0 0.312383f
c4 115 0 0.521682f
c5 109 0 0.183797f
c6 107 0 0.623f
c7 103 0 0.464717f
c8 101 0 0.246211f
c9 97 0 0.366277f
c10 93 0 0.443787f
c11 87 0 0.124407f
c12 70 0 0.0225867f
c13 68 0 0.0294814f
c14 66 0 0.28732f
c15 60 0 0.160376f
c16 51 0 0.250131f
c17 48 0 0.168018f
c18 44 0 0.288696f
c19 40 0 0.192257f
c20 38 0 0.147421f
c21 34 0 0.263212f
c22 27 0 0.0357982f
c23 26 0 0.0253118f
c24 24 0 0.801347f
c25 20 0 0.229471f
c26 16 0 0.00829491f
c27 14 0 1.70058f
c28 13 0 0.0442699f
c29 11 0 0.740121f
c30 9 0 0.0390622f
c31 8 0 1.1461f
c32 7 0 0.643788f
c33 2 0 0.630561f
r34 123 125 2.39464
r35 123 124 7.9952
r36 117 127 7.67908
r37 117 119 105.395
r38 113 127 7.67908
r39 113 115 191.842
r40 109 127 1.27263
r41 109 111 18.0735
r42 105 107 195.868
r43 104 125 5.28925
r44 103 105 5.02856
r45 103 104 178.105
r46 101 124 58.7368
r47 95 121 7.67908
r48 95 97 108.711
r49 91 121 7.67908
r50 91 93 144.474
r51 87 121 1.27263
r52 87 89 11.6449
r53 83 85 7.04483
r54 79 81 7.85172
r55 75 77 3.85487
r56 71 73 3.47257
r57 66 111 13.2552
r58 63 66 0.248571
r59 60 123 13.2552
r60 57 60 0.174255
r61 54 89 13.2552
r62 51 54 0.219492
r63 48 77 8.16635
r64 46 70 0.027481
r65 46 48 0.287966
r66 44 85 16.3327
r67 42 70 0.027481
r68 42 44 0.39031
r69 41 68 0.00344845
r70 40 70 0.00957691
r71 40 41 0.305094
r72 38 73 8.16635
r73 36 68 0.0462034
r74 36 38 0.5544
r75 34 81 16.3327
r76 32 68 0.0462034
r77 32 34 0.749933
r78 24 63 8
r79 22 24 0.712776
r80 20 57 8
r81 18 51 8
r82 18 20 0.39
r83 16 27 0.0325
r84 16 18 0.00522549
r85 15 26 0.0241655
r86 14 22 0.0508097
r87 14 15 2.34696
r88 13 27 0.0676
r89 11 26 0.0101395
r90 10 13 0.0349418
r91 10 11 1.33792
r92 8 26 0.0241655
r93 8 9 1.7933
r94 7 9 0.036333
r95 6 7 0.948519
r96 4 70 8
r97 2 6 0.0351516
r98 2 4 0.911685
.ends

.subckt PM_HW4_CPY%11 71 75 79 83 93 97 101 107 115 119
c0 127 0 0.0382078f
c1 123 0 0.10961f
c2 121 0 0.0350296f
c3 119 0 0.312383f
c4 115 0 0.521682f
c5 109 0 0.183797f
c6 107 0 0.623f
c7 103 0 0.464717f
c8 101 0 0.246211f
c9 97 0 0.366277f
c10 93 0 0.443787f
c11 87 0 0.124407f
c12 70 0 0.0225867f
c13 68 0 0.0294814f
c14 66 0 0.28732f
c15 60 0 0.160376f
c16 51 0 0.250131f
c17 48 0 0.168018f
c18 44 0 0.288696f
c19 40 0 0.192257f
c20 38 0 0.147421f
c21 34 0 0.263212f
c22 27 0 0.0357982f
c23 26 0 0.0257951f
c24 24 0 0.802002f
c25 20 0 0.229471f
c26 16 0 0.00829491f
c27 14 0 1.71427f
c28 13 0 0.0442699f
c29 11 0 0.740121f
c30 9 0 0.0390622f
c31 8 0 1.1477f
c32 7 0 0.643788f
c33 2 0 0.630561f
r34 123 125 2.39464
r35 123 124 7.9952
r36 117 127 7.67908
r37 117 119 105.395
r38 113 127 7.67908
r39 113 115 191.842
r40 109 127 1.27263
r41 109 111 18.0735
r42 105 107 195.868
r43 104 125 5.28925
r44 103 105 5.02856
r45 103 104 178.105
r46 101 124 58.7368
r47 95 121 7.67908
r48 95 97 108.711
r49 91 121 7.67908
r50 91 93 144.474
r51 87 121 1.27263
r52 87 89 11.6449
r53 83 85 7.04483
r54 79 81 7.85172
r55 75 77 3.85487
r56 71 73 3.47257
r57 66 111 13.2552
r58 63 66 0.248571
r59 60 123 13.2552
r60 57 60 0.174255
r61 54 89 13.2552
r62 51 54 0.219492
r63 48 77 8.16635
r64 46 70 0.027481
r65 46 48 0.287966
r66 44 85 16.3327
r67 42 70 0.027481
r68 42 44 0.39031
r69 41 68 0.00344845
r70 40 70 0.00957691
r71 40 41 0.305094
r72 38 73 8.16635
r73 36 68 0.0462034
r74 36 38 0.5544
r75 34 81 16.3327
r76 32 68 0.0462034
r77 32 34 0.749933
r78 24 63 8
r79 22 24 0.712776
r80 20 57 8
r81 18 51 8
r82 18 20 0.39
r83 16 27 0.0325
r84 16 18 0.00522549